*sl_noshale_hydro_t32* test
ROCKS----1----*----2----*----3----*----4----*----5----*----6----*----7----*----8
sands    2      2600      0.35  2.00e-12  2.00e-12  6.67e-13      2.51    920.00
   0.0e-10
    7      8.000e-01 2.000e-01 1.000e+00 5.000e-02
    7      4.000e-01 0.000e+00 1.610e-03 1.000e+01 9.990e-01
shale    2      2600      0.35  1.00e-18  1.00e-18  1.00e-18      2.51    920.00
   0.0e-10
    7      8.000e-01 2.000e-01 1.000e+00 5.000e-02
    7      4.000e-01 0.000e+00 1.610e-03 1.000e+01 9.990e-01

MULTI----1----*----2----*----3----*----4----*----5----*----6----*----7----*----8
    3    3    3    6
SELEC....2....3....4....5....6....7....8....9...10...11...12...13...14...15...16
    1                                            0    0    0    0    0    0    0
        .8        .8
START----1----*----2----*----3----*----4----*----5----*----6----*----7----*----8
----*----1 MOP: 123456789*123456789*1234 ---*----5----*----6----*----7----*----8
PARAM----1----*----2----*----3----*----4----*----5----*----6----*----7----*----8
    9500    99991000 00000000  4    3   
           3.11040e7     0.8e6                          9.81
    1.E-05    1.E-01
           1.105e+07           3.200e-02           0.000e+00                37.0
SOLVR----1----*----2----*----3----*----4----*----5----*----6----*----7----*----8
5  Z1   O0    1.0e-1   1.0e-07
GENER----1----*----2----*----3----*----4----*----5----*----6----*----7----*----8
JH732inj 1                   1     COM3     0.0000

TIMES----1----*----2----*----3----*----4----*----5----*----6----*----7----*----8
   24
  1.2960e6  2.5920e6  3.8880e6  5.1840e6  6.4800e6  7.7760e6  9.0720e6  1.0368e7
  1.1664e7  1.2960e7  1.4256e7  1.5552e7  1.6848e7  1.8144e7  1.9440e7  2.0736e7
  2.2032e7  2.3328e7  2.4624e7  2.5920e7  2.7216e7  2.8512e7  2.9808e7  3.1104e7

FOFT ----1----*----2----*----3----*----4----*----5----*----6----*----7----*----8

COFT ----1----*----2----*----3----*----4----*----5----*----6----*----7----*----8

GOFT ----1----*----2----*----3----*----4----*----5----*----6----*----7----*----8

ENDCY----1----*----2----*----3----*----4----*----5----*----6----*----7----*----8
