*u25_hydro*
ROCKS----1----*----2----*----3----*----4----*----5----*----6----*----7----*----8
sands    2      2600      0.35  2.00e-12  2.00e-12  2.00e-12      2.51    920.00
   6.0e-10
    7      8.000e-01 2.000e-01 1.000e+00 5.000e-02
    7      4.000e-01 0.000e+00 1.610e-03 1.000e+07 9.990e-01
well     2   2.6e+43      0.35  2.00e-12  2.00e-12  2.00e-12      2.51    920.00
   6.0e-10
    7      8.000e-01 2.000e-01 1.000e+00 5.000e-02
    7      4.000e-01 0.000e+00 1.610e-03 1.000e+07 9.990e-01
shale    2      2600      0.15  1.00e-18  1.00e-18  1.00e-18      2.51    920.00
   6.0e-10
    7      8.000e-01 2.000e-01 1.000e+00 5.000e-02
    7      4.000e-01 0.000e+00 1.610e-03 1.000e+07 9.990e-01
cfbed    0   2.6e+03      0.00  0.00e+00  0.00e+00  0.00e+00      2.51    920.00


MULTI----1----*----2----*----3----*----4----*----5----*----6----*----7----*----8
    3    4    3    6
SELEC....2....3....4....5....6....7....8....9...10...11...12...13...14...15...16
    1                                            0    0    0    0    0    0    0
        .8        .8
START----1----*----2----*----3----*----4----*----5----*----6----*----7----*----8
----*----1 MOP: 123456789*123456789*1234 ---*----5----*----6----*----7----*----8
PARAM----1----*----2----*----3----*----4----*----5----*----6----*----7----*----8
    9500    99991000 00000000 14    3   
           1.29600e7     0.8e6                          9.81
    1.E-05    1.E-01
           1.105e+07           3.200e-02           0.000e+00                32.0
SOLVR----1----*----2----*----3----*----4----*----5----*----6----*----7----*----8
5  Z1   O0    1.0e-1   1.0e-07
GENER----1----*----2----*----3----*----4----*----5----*----6----*----7----*----8
yB212inj 1                   1     COM3     0.0000 1.000e+05

TIMES----1----*----2----*----3----*----4----*----5----*----6----*----7----*----8
   5
  2.5920e6  5.1840e6  7.7760e6  1.0368e7  1.2960e7
FOFT ----1----*----2----*----3----*----4----*----5----*----6----*----7----*----8

COFT ----1----*----2----*----3----*----4----*----5----*----6----*----7----*----8
xB212yB212

GOFT ----1----*----2----*----3----*----4----*----5----*----6----*----7----*----8

ENDCY----1----*----2----*----3----*----4----*----5----*----6----*----7----*----8
