*u25_hydro* test
ROCKS----1----*----2----*----3----*----4----*----5----*----6----*----7----*----8
sands    2      2600      0.35  2.00e-12  2.00e-12  2.00e-12      2.51    920.00
   0.0e-10
    7      8.000e-01 2.000e-01 1.000e+00 5.000e-02
    7      4.000e-01 0.000e+00 1.610e-03 1.000e+01 9.990e-01
shale    2      2600      0.35  1.00e-18  1.00e-18  1.00e-18      2.51    920.00
   0.0e-10
    7      8.000e-01 2.000e-01 1.000e+00 5.000e-02
    7      4.000e-01 0.000e+00 1.610e-03 1.000e+01 9.990e-01

MULTI----1----*----2----*----3----*----4----*----5----*----6----*----7----*----8
    3    3    3    6
SELEC....2....3....4....5....6....7....8....9...10...11...12...13...14...15...16
    1                                            0    0    0    0    0    0    0
        .8        .8
START----1----*----2----*----3----*----4----*----5----*----6----*----7----*----8
----*----1 MOP: 123456789*123456789*1234 ---*----5----*----6----*----7----*----8
PARAM----1----*----2----*----3----*----4----*----5----*----6----*----7----*----8
    9500    99991000 00000000  4    3   
           1.72800e6     0.8e6                          9.81
    1.E-05    1.E-01
           1.105e+07           3.200e-02           0.000e+00                37.0
SOLVR----1----*----2----*----3----*----4----*----5----*----6----*----7----*----8
5  Z1   O0    1.0e-1   1.0e-07
GENER----1----*----2----*----3----*----4----*----5----*----6----*----7----*----8
yB212inj 1                   1     COM3     0.0000

TIMES----1----*----2----*----3----*----4----*----5----*----6----*----7----*----8
   1
  1.7280e6
FOFT ----1----*----2----*----3----*----4----*----5----*----6----*----7----*----8

COFT ----1----*----2----*----3----*----4----*----5----*----6----*----7----*----8
xB212yB212

GOFT ----1----*----2----*----3----*----4----*----5----*----6----*----7----*----8

ENDCY----1----*----2----*----3----*----4----*----5----*----6----*----7----*----8
